Circuit: * C:\Users\begow\Desktop\all\repos\MPEI\MPEI_Magistracy\Term_three\memory_system\KM2\amplifaer.asc

WARNING: Node N002 is floating.

WARNING: Less than two connections to node N002.  This node is used by M3.
Direct Newton iteration for .op point succeeded.

Date: Wed Oct 09 20:59:38 2024
Total elapsed time: 0.205 seconds.

tnom = 27
temp = 27
method = modified trap
totiter = 4147
traniter = 4126
tranpoints = 2044
accept = 2044
rejected = 0
matrix size = 41
fillins = 4
solver = Normal
Matrix Compiler1: 5.84 KB object code size  0.8/0.4/[0.3]
Matrix Compiler2: 4.83 KB object code size  0.3/0.4/[0.3]

