Circuit: * C:\Users\begow\Desktop\all\repos\MPEI\MPEI_Magistracy\Term_three\memory_system\KM2\full_amplifaer.asc

WARNING: Node N004 is floating.

WARNING: Less than two connections to node N004.  This node is used by M6.
Direct Newton iteration for .op point succeeded.

Date: Wed Oct 09 22:19:26 2024
Total elapsed time: 0.387 seconds.

tnom = 27
temp = 27
method = modified trap
totiter = 4185
traniter = 4164
tranpoints = 2055
accept = 2053
rejected = 2
matrix size = 58
fillins = 4
solver = Normal
Matrix Compiler1: 8.49 KB object code size  1.2/0.5/[0.5]
Matrix Compiler2: 6.90 KB object code size  0.4/0.5/[0.4]

