Circuit: * C:\Users\begow\Desktop\all\repos\MPEI\MPEI_Magistracy\Term_three\memory_system\KM2\sense_amplifaer.asc

WARNING: Node N001 is floating.

WARNING: Less than two connections to node N001.  This node is used by M1.
Direct Newton iteration for .op point succeeded.

Date: Wed Oct 09 21:07:17 2024
Total elapsed time: 0.170 seconds.

tnom = 27
temp = 27
method = modified trap
totiter = 4202
traniter = 4181
tranpoints = 2087
accept = 2068
rejected = 19
matrix size = 19
fillins = 4
solver = Normal
Matrix Compiler1: 2.38 KB object code size  0.4/0.3/[0.1]
Matrix Compiler2: 2.30 KB object code size  0.2/0.2/[0.1]

