Circuit: * C:\Users\begow\Desktop\all\repos\MPEI\MPEI_Magistracy\Term_three\memory_system\KM1\invertor_pulse.asc

Direct Newton iteration for .op point succeeded.

Date: Wed Oct 09 20:09:08 2024
Total elapsed time: 0.445 seconds.

tnom = 27
temp = 27
method = modified trap
totiter = 10226
traniter = 10213
tranpoints = 5095
accept = 5075
rejected = 20
matrix size = 103
fillins = 0
solver = Normal
Matrix Compiler1: 13.26 KB object code size  2.2/0.9/[0.7]
Matrix Compiler2: 12.03 KB object code size  0.9/1.0/[0.6]

