Circuit: * C:\Users\begow\Desktop\all\repos\MPEI\MPEI_Magistracy\Term_three\memory_system\KM1\invertor.asc


Date: Wed Oct 09 20:09:37 2024
Total elapsed time: 0.077 seconds.

tnom = 27
temp = 27
method = trap
totiter = 2006
traniter = 0
tranpoints = 0
accept = 0
rejected = 0
matrix size = 13
fillins = 0
solver = Normal
Matrix Compiler1: 960 bytes object code size  0.2/0.1/[0.1]
Matrix Compiler2: 1.32 KB object code size  0.1/0.5/[0.1]

