Circuit: * C:\Users\begow\Desktop\all\repos\MPEI\MPEI_Magistracy\Term_three\memory_system\KM1\output_char.asc

.OP point found by inspection.
.step v2=0
.step v2=0.25
.step v2=0.5
.step v2=0.75
.step v2=1
.step v2=1.25
.step v2=1.5

Date: Wed Oct 09 20:08:17 2024
Total elapsed time: 0.100 seconds.

tnom = 27
temp = 27
method = trap
totiter = 2843
traniter = 0
tranpoints = 0
accept = 0
rejected = 0
matrix size = 9
fillins = 0
solver = Normal
Matrix Compiler1: 492 bytes object code size  0.1/0.0/[0.0]
Matrix Compiler2: 735 bytes object code size  0.1/0.1/[0.1]

