Circuit: * C:\Users\begow\Desktop\all\repos\MPEI\MPEI_Magistracy\Term_three\memory_system\KM1\transmission_char.asc

.OP point found by inspection.
.step v1=0
.step v1=0.4
.step v1=0.8
.step v1=1.2
.step v1=1.6
.step v1=2

Date: Wed Oct 09 20:06:58 2024
Total elapsed time: 0.127 seconds.

tnom = 27
temp = 27
method = trap
totiter = 3031
traniter = 0
tranpoints = 0
accept = 0
rejected = 0
matrix size = 9
fillins = 0
solver = Normal
Matrix Compiler1: 492 bytes object code size  0.1/0.1/[0.0]
Matrix Compiler2: 735 bytes object code size  0.1/0.1/[0.0]

